/*--------------------------------*- C++ -*----------------------------------*\
| =========                 |                                                 |
| \\      /  F ield         | OpenFOAM: The Open Source CFD Toolbox           |
|  \\    /   O peration     | Version:  v1812                                 |
|   \\  /    A nd           | Web:      www.OpenFOAM.com                      |
|    \\/     M anipulation  |                                                 |
\*---------------------------------------------------------------------------*/
FoamFile
{
    version     2.0;
    format      ascii;
    class       polyBoundaryMesh;
    location    "constant/polyMesh";
    object      boundary;
}
// * * * * * * * * * * * * * * * * * * * * * * * * * * * * * * * * * * * * * //

3
(
    channel_outer
    {
        type            wall;
        inGroups        1(wall);
        nFaces          60;
        startFace       432;
    }
    channel_inner
    {
        type            wall;
        inGroups        1(wall);
        nFaces          60;
        startFace       492;
    }
    channel_sides
    {
        type            wall;
        inGroups        1(wall);
        nFaces          96;
        startFace       552;
    }
)

// ************************************************************************* //
