/*--------------------------------*- C++ -*---------------------------------*\ 
| ========                 |                                                 | 
| \      /  F ield         | OpenFOAM: The Open Source CFD Toolbox           | 
|  \    /   O peration     | Version:  v1812                                 | 
|   \  /    A nd           | Web:      www.OpenFOAM.com                      | 
|    \/     M anipulation  |                                                 | 
\*--------------------------------------------------------------------------*/ 
FoamFile
{
    version     2.0;
    format      ascii;
    class       dictionary;
    object      fvSolution;
}
// * * * * * * * * * * * * * * * * * * * * * * * * * * * * * * * * * * * * * //

solvers
{
    "pcorr.*"
    {
        solver           GAMG;
        tolerance        0.02;
        relTol           0;
        smoother         GaussSeidel;
    }

    p
    {
        $pcorr;
        tolerance        1e-8;
        relTol           0.001;
    }

    pFinal
    {
        $p;
        tolerance        1e-8;
        relTol           0;
    }

    "(U|k|omega|nuTilda|T)"
    {
        solver          smoothSolver;
        smoother        symGaussSeidel;
        tolerance       1e-08;
        relTol          0.1;
    }

    "(U|k|omega|nuTilda|T)Final"
    {
        $U;
        tolerance       1e-08;
        relTol          0;
    }

    cellDisplacement
    {
        solver          GAMG;
        tolerance       1e-6;
        relTol          0;
        smoother        GaussSeidel;
    }
}

PIMPLE
{
    correctPhi          yes;
    nOuterCorrectors    5;
    nCorrectors         2;
    nNonOrthogonalCorrectors 0;
    turbOnFinalIterOnly false;
}

relaxationFactors
{
    fields
    {
        p               0.3;
        pFinal          1.0;
    }
    equations
    {
        "(U|k|omega|nuTilda|T)"   0.7;
        "(U|k|omega|nuTilda|T)Final" 1.0;
    }
}

cache
{
    grad(U);
}


// * * * * * * * * * * * * * * * * * * * * * * * * * * * * * * * * * * * * * //
