/*--------------------------------*- C++ -*----------------------------------*\
| =========                 |                                                 |
| \\      /  F ield         | OpenFOAM: The Open Source CFD Toolbox           |
|  \\    /   O peration     | Version:  v1812                                 |
|   \\  /    A nd           | Web:      www.OpenFOAM.com                      |
|    \\/     M anipulation  |                                                 |
\*---------------------------------------------------------------------------*/
FoamFile
{
    version     2.0;
    format      ascii;
    class       polyBoundaryMesh;
    location    "constant/polyMesh";
    object      boundary;
}
// * * * * * * * * * * * * * * * * * * * * * * * * * * * * * * * * * * * * * //

10
(
    cold_air_out
    {
        type            patch;
        nFaces          36;
        startFace       1848;
    }
    cold_air_in
    {
        type            patch;
        nFaces          36;
        startFace       1884;
    }
    cold_air_outer
    {
        type            wall;
        inGroups        1(wall);
        nFaces          60;
        startFace       1920;
    }
    cold_air_inner
    {
        type            wall;
        inGroups        1(wall);
        nFaces          60;
        startFace       1980;
    }
    cold_air_sides
    {
        type            wall;
        inGroups        1(wall);
        nFaces          120;
        startFace       2040;
    }
    hot_air_in
    {
        type            patch;
        nFaces          36;
        startFace       2160;
    }
    hot_air_out
    {
        type            patch;
        nFaces          36;
        startFace       2196;
    }
    hot_air_outer
    {
        type            wall;
        inGroups        1(wall);
        nFaces          60;
        startFace       2232;
    }
    hot_air_inner
    {
        type            wall;
        inGroups        1(wall);
        nFaces          60;
        startFace       2292;
    }
    hot_air_sides
    {
        type            wall;
        inGroups        1(wall);
        nFaces          120;
        startFace       2352;
    }
)

// ************************************************************************* //
