/*--------------------------------*- C++ -*----------------------------------*\
| =========                 |                                                 |
| \\      /  F ield         | OpenFOAM: The Open Source CFD Toolbox           |
|  \\    /   O peration     | Version:  v1812                                 |
|   \\  /    A nd           | Web:      www.OpenFOAM.com                      |
|    \\/     M anipulation  |                                                 |
\*---------------------------------------------------------------------------*/
FoamFile
{
    version     2.0;
    format      ascii;
    class       dictionary;
    object      blockMeshDict;
}
// * * * * * * * * * * * * * * * * * * * * * * * * * * * * * * * * * * * * * //

convertToMeters 1.0;

vertices
(
    (0. 0.05 0.)
    (1. 0.05 0.)
    (1. 0.06 0.)
    (0. 0.06 0.)
    (0. 0.05  0.05)
    (1. 0.05 0.05)
    (1. 0.06 0.05)
    (0. 0.06 0.05)
);

blocks
(
  hex (0 1 2 3 4 5 6 7) (20 4 8) 
  simpleGrading 
  (
      1.0
      1.0
      (
          (0.5 0.5 2)
          (0.5 0.5 0.5)
      )
  )
);

edges
(
);

boundary
(
    channel_outer
    {
        type wall;
        faces
        (
            (3 7 6 2)
        );
    }
    channel_inner
    {
        type wall;
        faces
	    (
            (0 4 5 1)
        );
    }
    channel_sides
    {
        type wall;
        faces
        (
            (0 1 2 3)
            (4 5 6 7)
            (0 4 7 3)
            (1 5 6 2)
        );
    }
);

mergePatchPairs
(
);

// ************************************************************************* //
