/*--------------------------------*- C++ -*---------------------------------*\ 
| ========                 |                                                 | 
| \      /  F ield         | OpenFOAM: The Open Source CFD Toolbox           | 
|  \    /   O peration     | Version:  v1812                                 | 
|   \  /    A nd           | Web:      www.OpenFOAM.com                      | 
|    \/     M anipulation  |                                                 | 
\*--------------------------------------------------------------------------*/ 
FoamFile
{
    version     2.0;
    format      ascii;
    class       dictionary;
    location    "system";
    object      controlDict;
}
// * * * * * * * * * * * * * * * * * * * * * * * * * * * * * * * * * * * * * //


application     simpleDAFoam;
startFrom       startTime;
startTime       0;
stopAt          endTime;
endTime         500;
deltaT          1;
writeControl    timeStep;
writeInterval   500;
purgeWrite      0;
writeFormat     ascii;
writePrecision  16;
writeCompression on;
timeFormat      general;
timePrecision   8;
runTimeModifiable false;

DebugSwitches
{
    SolverPerformance 0;
}

functions
{
    fieldAverage1
    {
        type            fieldAverage;
        libs            ("libfieldFunctionObjects.so");
        writeControl    writeTime;
        restartOnRestart    false;
        restartOnOutput     false;
        periodicRestart     true;
        restartPeriod       100;
        log                 false;

        fields
        (
            U
            {
                mean        on;
                prime2Mean  off;
                base        time;
            }
            p
            {
                mean        on;
                prime2Mean  off;
                base        time;
            }
            T
            {
                mean        on;
                prime2Mean  off;
                base        time;
            }
            phi
            {
                mean        on;
                prime2Mean  off;
                base        time;
            }
            nuTilda
            {
                mean        on;
                prime2Mean  off;
                base        time;
            }
        );
    }
}
