/*--------------------------------*- C++ -*----------------------------------*\
| =========                 |                                                 |
| \\      /  F ield         | OpenFOAM: The Open Source CFD Toolbox           |
|  \\    /   O peration     | Version:  plus                                  |
|   \\  /    A nd           | Web:      www.OpenFOAM.org                      |
|    \\/     M anipulation  |                                                 |
\*---------------------------------------------------------------------------*/
FoamFile
{
    version     2.0;
    format      ascii;
    class       volScalarField;
    location    "0";
    object      omega;
}
// * * * * * * * * * * * * * * * * * * * * * * * * * * * * * * * * * * * * * //

dimensions      [0 0 -1 0 0 0 0];

internalField   uniform 100;

boundaryField
{
    inout
    {
        type            inletOutlet;
        inletValue      $internalField;
        value           $internalField;
    }

    "(sym.*)"
    {
        type            symmetry;
    }
    "(wing.*)"
    {
        type            omegaWallFunction;
        value           $internalField;
        blended         true;
    }

}



// ************************************************************************* //
