/*--------------------------------*- C++ -*----------------------------------*\
| =========                 |                                                 |
| \\      /  F ield         | OpenFOAM: The Open Source CFD Toolbox           |
|  \\    /   O peration     | Version:  v1812                                 |
|   \\  /    A nd           | Web:      www.OpenFOAM.com                      |
|    \\/     M anipulation  |                                                 |
\*---------------------------------------------------------------------------*/
FoamFile
{
    version     2.0;
    format      ascii;
    class       dictionary;
    location    "system";
    object      fvSolution;
}
// * * * * * * * * * * * * * * * * * * * * * * * * * * * * * * * * * * * * * //

solvers
{
    "(p|p_rgh|G)"
    {
        solver           GAMG;
        tolerance        0;
        relTol           0.01;
        smoother         GaussSeidel;
        maxIter          20;
        minIter          1;
    }

    "(p|p_rgh|G)Final"
    {
        $p;
        relTol          0;
        tolerance       1e-8;
    }

    "(U|T|e|h|nuTilda|k|omega|epsilon|ReThetat|gammaInt)"
    {
        solver          smoothSolver;
        smoother        GaussSeidel;
        tolerance       1e-8;
        relTol          0.0;
        maxIter         20;
        minIter          1;
    }

    "(U|T|e|h|nuTilda|k|omega|epsilon|ReThetat|gammaInt)Final"
    {
        $U;
        relTol          0;
    }
}

relaxationFactors
{
    fields
    {
        "(p|p_rgh|G)"                   0.3;
    }
    equations
    {
        "(U|T|e|h|nuTilda|k|omega|epsilon|ReThetat|gammaInt)"      0.7;
    }
}

PIMPLE
{
    nNonOrthogonalCorrectors 0;
    nCorrectors         2;
    nOuterCorrectors 20;

    residualControl
    {
        "(U|T|e|h|nuTilda|k|omega|epsilon|p|p_rgh|G)" 
        {
            tolerance       1e-5; 
            relTol          1e-5; 
        } 
    }
}



// ************************************************************************* //
