/*--------------------------------*- C++ -*----------------------------------*\
| =========                 |                                                 |
| \\      /  F ield         | OpenFOAM: The Open Source CFD Toolbox           |
|  \\    /   O peration     | Version:  v1812                                 |
|   \\  /    A nd           | Web:      www.OpenFOAM.com                      |
|    \\/     M anipulation  |                                                 |
\*---------------------------------------------------------------------------*/
FoamFile
{
    version     2.0;
    format      ascii;
    class       polyBoundaryMesh;
    location    "constant/polyMesh";
    object      boundary;
}
// * * * * * * * * * * * * * * * * * * * * * * * * * * * * * * * * * * * * * //

4
(
    hole
    {
        type            wall;
        inGroups        1(wall);
        nFaces          80;
        startFace       7840;
    }
    sym
    {
        type            symmetry;
        inGroups        1(symmetry);
        nFaces          8000;
        startFace       7920;
    }
    wallx
    {
        type            wall;
        inGroups        1(wall);
        nFaces          120;
        startFace       15920;
    }
    wally
    {
        type            wall;
        inGroups        1(wall);
        nFaces          120;
        startFace       16040;
    }
)

// ************************************************************************* //
